*Heading
** Job name: ShearWavy_6.25MMDisp_Amp_1.8 Model name: Model-1
** Generated by: Abaqus/CAE 2021
*Preprint, echo=NO, model=NO, history=NO, contact=NO
**
** PARTS
**
*Part, name=Part-1
*End Part
**
**
** ASSEMBLY
**
*Assembly, name=Assembly
**
*Instance, name=Part-1-1, part=Part-1
*Node
1, -20, 4, 0
2, -19.6, 4.5562, 0
3, -19.2, 5.058, 0
4, -18.8, 5.4562, 0
5, -18.4, 5.7119, 0
6, -18, 5.8, 0
7, -17.6, 5.7119, 0
8, -17.2, 5.4562, 0
9, -16.8, 5.058, 0
10, -16.4, 4.5562, 0
11, -15.6, 3.4438, 0
12, -15.2, 2.942, 0
13, -14.8, 2.5438, 0
14, -14.4, 2.2881, 0
15, -14, 2.2, 0
16, -13.6, 2.2881, 0
17, -13.2, 2.5438, 0
18, -12.8, 2.942, 0
19, -12.4, 3.4438, 0
20, -11.6, 4.5562, 0
** ... 60520 like lines cut
*Element, type=C3D4H
1, 8328, 6741, 8137, 8121
2, 7441, 5207, 5166, 6815
3, 7872, 6991, 7017, 7409
4, 8137, 6741, 7766, 8121
5, 8274, 8439, 8593, 7908
6, 6556, 4767, 4729, 4774
7, 6556, 6580, 4767, 4774
8, 6402, 4415, 4417, 4445
9, 5654, 5610, 5779, 5656
10, 7360, 4643, 4644, 6493
11, 6518, 4698, 4650, 4700
12, 7360, 6493, 4644, 6514
13, 7334, 4423, 4456, 6406
14, 7674, 7668, 7673, 6466
15, 6518, 4650, 4698, 6517
16, 7348, 6465, 4554, 7349
17, 7166, 5934, 5932, 7196
18, 7166, 7167, 5878, 5934
19, 7166, 7196, 7167, 5934
20, 7166, 7084, 7196, 5932
** ... 39022 like lines cut
*Nset, nset=Set-1, generate
1, 60540, 1
*Elset, elset=Set-1, generate
1, 39042, 1
** Section: Section-1
*Solid Section, elset=Set-1, controls=EC-1, material=Material-1
,
*End Instance
**
*Nset, nset=bc-set-1, instance=Part-1-1
1, 2, 3, 4, 5, 6, 7, 8, 9, 10, 11, 12, 13, 14, 15, 16
17, 18, 19, 20, 21, 22, 23, 24, 25, 26, 27, 28, 29, 30, 31, 32
33, 34, 35, 36, 37, 38, 39, 40, 41, 42, 43, 44, 45, 46, 47, 48
49, 50, 51, 52, 53, 54, 55, 56, 57, 58, 59, 60, 61, 62, 63, 64
65, 66, 67, 68, 69, 70, 71, 72, 73, 74, 75, 76, 77, 78, 79, 80
81, 82, 83, 84, 85, 86, 87, 88, 89, 90, 91, 92, 185, 186, 187, 188
189, 190, 191, 192, 193, 207, 208, 209, 210, 211, 212, 213, 214, 215, 216, 217
218, 219, 220, 221, 222, 223, 224, 225, 226, 227, 228, 229, 230, 231, 232, 233
234, 235, 236, 237, 238, 239, 240, 241, 242, 243, 244, 245, 246, 247, 248, 249
250, 251, 252, 253, 254, 255, 256, 257, 258, 259, 260, 261, 262, 263, 264, 265
266, 267, 268, 269, 270, 271, 272, 273, 274, 275, 276, 277, 278, 279, 280, 281
282, 283, 284, 285, 286, 287, 288, 289, 290, 291, 292, 293, 294, 295, 296, 297
298, 391, 392, 393, 394, 395, 396, 397, 398, 399, 437, 438, 439, 440, 441, 442
443, 444, 445, 446, 447, 448, 449, 450, 451, 452, 453, 454, 455, 456, 457, 458
459, 460, 461, 462, 463, 464, 465, 466, 467, 468, 469, 470, 471, 472, 473, 474
475, 476, 477, 478, 479, 480, 481, 482, 483, 484, 485, 486, 487, 488, 489, 490
491, 492, 493, 494, 495, 496, 497, 498, 499, 500, 501, 502, 503, 504, 505, 506
507, 508, 509, 510, 511, 512, 513, 514, 515, 516, 517, 518, 519, 520, 521, 522
523, 524, 525, 526, 527, 528, 529, 530, 531, 532, 533, 534, 535, 536, 537, 538
539, 540, 541, 542, 543, 544, 545, 546, 547, 548, 549, 550, 551, 552, 553, 554
** ... 128 like lines cut
*Nset, nset=bc-set-2, instance=Part-1-1
93, 94, 95, 96, 97, 98, 99, 100, 101, 102, 103, 104, 105, 106, 107, 108
109, 110, 111, 112, 113, 114, 115, 116, 117, 118, 119, 120, 121, 122, 123, 124
125, 126, 127, 128, 129, 130, 131, 132, 133, 134, 135, 136, 137, 138, 139, 140
141, 142, 143, 144, 145, 146, 147, 148, 149, 150, 151, 152, 153, 154, 155, 156
157, 158, 159, 160, 161, 162, 163, 164, 165, 166, 167, 168, 169, 170, 171, 172
173, 174, 175, 176, 177, 178, 179, 180, 181, 182, 183, 184, 196, 197, 198, 199
200, 201, 202, 203, 204, 299, 300, 301, 302, 303, 304, 305, 306, 307, 308, 309
310, 311, 312, 313, 314, 315, 316, 317, 318, 319, 320, 321, 322, 323, 324, 325
326, 327, 328, 329, 330, 331, 332, 333, 334, 335, 336, 337, 338, 339, 340, 341
342, 343, 344, 345, 346, 347, 348, 349, 350, 351, 352, 353, 354, 355, 356, 357
358, 359, 360, 361, 362, 363, 364, 365, 366, 367, 368, 369, 370, 371, 372, 373
374, 375, 376, 377, 378, 379, 380, 381, 382, 383, 384, 385, 386, 387, 388, 389
390, 402, 403, 404, 405, 406, 407, 408, 409, 410, 1385, 1386, 1387, 1388, 1389, 1390
1391, 1392, 1393, 1394, 1395, 1396, 1397, 1398, 1399, 1400, 1401, 1402, 1403, 1404, 1405, 1406
1407, 1408, 1409, 1410, 1411, 1412, 1413, 1414, 1415, 1416, 1417, 1418, 1419, 1420, 1421, 1422
1423, 1424, 1425, 1426, 1427, 1428, 1429, 1430, 1431, 1432, 1433, 1434, 1435, 1436, 1437, 1438
1439, 1440, 1441, 1442, 1443, 1444, 1445, 1446, 1447, 1448, 1449, 1450, 1451, 1452, 1453, 1454
1455, 1456, 1457, 1458, 1459, 1460, 1461, 1462, 1463, 1464, 1465, 1466, 1467, 1468, 1469, 1470
1471, 1472, 1473, 1474, 1475, 1476, 1477, 1478, 1479, 1480, 1481, 1482, 1483, 1484, 1485, 1486
1487, 1488, 1489, 1490, 1491, 1492, 1493, 1494, 1495, 1496, 1497, 1498, 1499, 1500, 1501, 1502
** ... 128 like lines cut
*End Assembly
**
** ELEMENT CONTROLS
**
*Section Controls, name=EC-1, hourglass=ENHANCED
1., 1., 1.
**
** MATERIALS
**
*Material, name=Material-1
*Hyperelastic, n=3, ogden
0.4017, 1.3, 0.00295, 5, 0.00981, -2, 0, 0
0,
** ----------------------------------------------------------------
**
** STEP: Step-1
**
*Step, name=Step-1, nlgeom=YES
*Static
1., 1., 1e-05, 1.
**
** BOUNDARY CONDITIONS
**
** Name: BC-1 Type: Displacement/Rotation
*Boundary
bc-set-1, 1, 1, 6.25
bc-set-1, 2, 6
** Name: BC-2 Type: Symmetry/Antisymmetry/Encastre
*Boundary
bc-set-2, ENCASTRE
**
** OUTPUT REQUESTS
**
*Restart, write, frequency=0
**
** FIELD OUTPUT: F-Output-1
**
*Output, field, variable=PRESELECT
**
** HISTORY OUTPUT: H-Output-1
**
*Output, history, variable=PRESELECT
*End Step
